/*--------------------------------*- C++ -*----------------------------------*\
| =========                 |                                                 |
| \\      /  F ield         | OpenFOAM: The Open Source CFD Toolbox           |
|  \\    /   O peration     | Version:  1.3                                   |
|   \\  /    A nd           | Web:      http://www.openfoam.org               |
|    \\/     M anipulation  |                                                 |
\*---------------------------------------------------------------------------*/

FoamFile
{
    version         2.0;
    format          ascii;
    class           dictionary;
    object          controlDict;
}

// * * * * * * * * * * * * * * * * * * * * * * * * * * * * * * * * * * * * * //

applicationClass transientSimpleDyMFoam;

startFrom       latestTime;

startTime       0;

stopAt          endTime;//nextWrite;//

endTime         1.;

deltaT          0.000113378;//(0.5deg)5.6689E-5;(1deg)0.000113378;(2deg)0.000226756,(3deg)0.000340134

writeControl    timeStep;

writeInterval   8;

cycleWrite      0;

purgeWrite      90;

writeFormat     ascii;

writePrecision  8;

writeCompression compressed;

timeFormat      general;

timePrecision   7;

runTimeModifiable yes;

adjustTimeStep no;

maxCo          1.0;

maxDeltaT     1.15E-04;

functions
(
    ggiCheck
    {
        // Type of functionObject
        type ggiCheck;

        phi phi;

        // Where to load it from (if not already in solver)
        functionObjectLibs ("libsampling.so");
    }

   turboPerformance
   {
      type turboPerformance;
      functionObjectLibs ("libturboPerformance.so");
      inletPatches (inlet);
      outletPatches (outlet);
      patches (impellerWall);
      log true;
      rhoInf 998.0;
      CofR (0 0 0);
      omega (0 0 -153.94);
   }


);


// ************************************************************************* //
