/*--------------------------------*- C++ -*----------------------------------*\
| =========                 |                                                 |
| \\      /  F ield         | OpenFOAM: The Open Source CFD Toolbox           |
|  \\    /   O peration     | Version:  1.5                                   |
|   \\  /    A nd           | Web:      http://www.OpenFOAM.org               |
|    \\/     M anipulation  |                                                 |
\*---------------------------------------------------------------------------*/
FoamFile
{
    version     2.0;
    format      ascii;
    class       dictionary;
    object      controlDict;
}
// * * * * * * * * * * * * * * * * * * * * * * * * * * * * * * * * * * * * * //

application     MRFSimpleFoam;

startFrom       startTime;

startTime       0;

stopAt          endTime;

endTime         5000;

deltaT          1;

writeControl    timeStep;

writeInterval   500;

purgeWrite      0;

writeFormat     ascii;

writePrecision  8;

writeCompression compressed;

timeFormat      general;

timePrecision   6;

runTimeModifiable yes;

functions
(
   trackDictionaryContent
   {
       type trackDictionary;
       // Where to load it from (if not already in solver)
       functionObjectLibs ("libsimpleFunctionObjects.so");
       // Names of dictionaries to track.
       dictionaryNameList
       (
           "system/controlDict"
           "system/fvSchemes"
           "system/fvSolution"
           "constant/transportProperties"
           "constant/RASProperties"
       );
       // Section separators (optional)
       // If the string "_sectionIdToken_" explicitely appears in the
       // specification of the following section separators, this token
       // string will be replaced by the name of the dictionary beeing
       // dumped to the console, plus the file modification date and time.
       sectionStartSeparator "############ Start of: _sectionIdToken_############";
       sectionEndSeparator   "############ End of: _sectionIdToken_############";
   }

   ggiCheck
    {
       // Type of functionObject
       type ggiCheck;
       phi phi;
       // Where to load it from (if not already in solver)
       functionObjectLibs ("libsampling.so");
    }
);




libs ("libOpenFoamTurbo.so");
// ************************************************************************* //
