/*---------------------------------------------------------------------------*\
| =========                 |                                                 |
| \\      /  F ield         | OpenFOAM: The Open Source CFD Toolbox           |
|  \\    /   O peration     | Version:  1.4                                   |
|   \\  /    A nd           | Web:      http://www.openfoam.org               |
|    \\/     M anipulation  |                                                 |
\*---------------------------------------------------------------------------*/

FoamFile
{
    version         2.0;
    format          ascii;

    root            "";
    case            "";
    instance        "";
    local           "";

    class           dictionary;
    object          fvSolution;
}

// * * * * * * * * * * * * * * * * * * * * * * * * * * * * * * * * * * * * * //

solvers
{
    p PCG
    {
       preconditioner  DIC;
        

        minIter          0;
        maxIter          4000;
        tolerance        1e-08;
        relTol           0;
    };

    U PBiCG
    {
        preconditioner  DILU;


        minIter          0;
        maxIter          4000;
        tolerance        1e-07;
        relTol           0;
    };
}

PISO
{
    nCorrectors     2;
    nNonOrthogonalCorrectors 1;
    pRefCell        0;
    pRefValue       0;
}


// ************************************************************************* //
