/*--------------------------------*- C++ -*----------------------------------*\
| =========                 |                                                 |
| \\      /  F ield         | OpenFOAM: The Open Source CFD Toolbox           |
|  \\    /   O peration     | Version:  1.5                                   |
|   \\  /    A nd           | Web:      http://www.OpenFOAM.org               |
|    \\/     M anipulation  |                                                 |
\*---------------------------------------------------------------------------*/
FoamFile
{
    version     2.0;
    format      ascii;
    class       volScalarField;
    object      p;
}
// * * * * * * * * * * * * * * * * * * * * * * * * * * * * * * * * * * * * * //

dimensions      [0 2 -2 0 0 0 0];

internalField   uniform 0;

boundaryField
{
    INLET
    {
        type            zeroGradient;
    }
    OUTLET
    {
        type            fixedMeanValue;
        meanValue           0;
    }
    STATOR
    {
    	typet		empty;
    }
    BLADE_ROT
    {
        type            zeroGradient;
    }
    BLADE_STAT
    {
        type            zeroGradient;
    }
    ROTOR 
    {
        type            empty;
    }
    GGI_INT
    {
        type            ggi;
    }   
    GGI_EXT
    {
        type            ggi;
    }   
    HUB_SHROUD
    {
        type            empty;
    }
}

// ************************************************************************* //
