/*--------------------------------*- C++ -*----------------------------------*\
| =========                 |                                                 |
| \\      /  F ield         | OpenFOAM: The Open Source CFD Toolbox           |
|  \\    /   O peration     | Version:  1.5                                   |
|   \\  /    A nd           | Web:      http://www.OpenFOAM.org               |
|    \\/     M anipulation  |                                                 |
\*---------------------------------------------------------------------------*/
FoamFile
{
    version     2.0;
    format      ascii;
    class       dictionary;
    object      fvSchemes;
}
// * * * * * * * * * * * * * * * * * * * * * * * * * * * * * * * * * * * * * //

ddtSchemes
{
    default Euler;
}

gradSchemes
{
    default         Gauss linear;
}

divSchemes
{
    default         none;
    div(phi,Wxyz)      Gauss limitedLinearV 1;
    div(phi,k)      Gauss upwind;
    div(phi,epsilon) Gauss upwind;
    div(phi,omega)  Gauss upwind;
    div(phi,R)      Gauss upwind;
    div(R)          Gauss linear;
    div(phid,p)     Gauss limitedLinear 1;
    div(phiWxyz,p)     Gauss limitedLinear 1;
    div(phi,h)      Gauss limitedLinear 1;
    div((muEff*dev2(grad(Wxyz).T()))) Gauss linear;
}

laplacianSchemes
{
    default         none;
    laplacian(muEff,Wxyz) Gauss linear limited 0.5;
    laplacian(DkEff,k) Gauss linear limited 0.5;
    laplacian(DREff,R) Gauss linear limited 0.5;
    laplacian(DepsilonEff,epsilon) Gauss linear limited 0.5;
    laplacian((rho*(1|A(Wxyz))),p) Gauss linear limited 0.5;
    laplacian(alphaEff,h) Gauss linear limited 0.5;
    laplacian(DomegaEff,omega) Gauss linear limited 0.5;
}

interpolationSchemes
{
    default         linear;
}

snGradSchemes
{
    default         corrected;
}

fluxRequired
{
    default         no;
    p;
}

// ************************************************************************* //
