/*--------------------------------*- C++ -*----------------------------------*\
| =========                 |                                                 |
| \\      /  F ield         | OpenFOAM: The Open Source CFD Toolbox           |
|  \\    /   O peration     | Version:  1.3                                   |
|   \\  /    A nd           | Web:      http://www.openfoam.org               |
|    \\/     M anipulation  |                                                 |
\*---------------------------------------------------------------------------*/

FoamFile
{
    version         2.0;
    format          ascii;
    class           dictionary;
    object          fvSchemes;
}

// * * * * * * * * * * * * * * * * * * * * * * * * * * * * * * * * * * * * * //

ddtSchemes
{
    default Euler;
}

gradSchemes
{
    default         Gauss linear;
    grad(p)            Gauss linear;
    grad(U)            Gauss linear;
}

divSchemes
{
    default        Gauss linear;
    div(phi,U)      Gauss  GammaV 0.5;
    div(phi,k)       Gauss Gamma 1;
    div(phi,epsilon) Gauss Gamma 1;
    div(phi,omega) Gauss Gamma 1;
}

laplacianSchemes
{
    default        Gauss linear corrected;
    laplacian(nu,U) Gauss linear uncorrected;
    laplacian(nuEff,U) Gauss linear corrected;

    laplacian(rAU,pcorr) Gauss linear corrected;
    laplacian(rAU,p) Gauss linear corrected;

    laplacian((1|A(U)),p) Gauss linear corrected;

    laplacian(DkEff,k) Gauss linear corrected;
    laplacian(DepsilonEff,epsilon) Gauss linear corrected;
    laplacian(DomegaEff,omega) Gauss linear corrected;
}

interpolationSchemes
{
    default         linear;
    interpolate(HbyA) linear;
    interpolate(1|A) linear;
}

snGradSchemes
{
    default         corrected;
}

fluxRequired
{
    default         no;
    pcorr;
    p;
}


// ************************************************************************* //
