/*--------------------------------*- C++ -*----------------------------------*\
| =========                 |                                                 |
| \\      /  F ield         | OpenFOAM: The Open Source CFD Toolbox           |
|  \\    /   O peration     | Version:  1.3                                   |
|   \\  /    A nd           | Web:      http://www.openfoam.org               |
|    \\/     M anipulation  |                                                 |
\*---------------------------------------------------------------------------*/

FoamFile
{
    version         2.0;
    format          ascii;
    class           dictionary;
    object          dynamicMeshDict;
}

// * * * * * * * * * * * * * * * * * * * * * * * * * * * * * * * * * * * * * //

dynamicFvMeshLib   "libtopoChangerFvMesh.so";
dynamicFvMesh      mixerGgiFvMesh;

mixerGgiFvMeshCoeffs
{
    coordinateSystem
    {
        type            cylindrical;
        origin          (0 0 0);
        axis            (0 0 1);
        direction       (1 0 0);
    }

    rpm             920;

    slider
    {
        moving      ( RUNNER_INLET RUNNER_OUTLET );
        static      ( SV_OUTLET SUGROR_INLET );
    }
}


// ************************************************************************* //
