/*---------------------------------------------------------------------------*\
| =========                 |                                                 |
| \\      /  F ield         | OpenFOAM: The Open Source CFD Toolbox           |
|  \\    /   O peration     | Version:  1.4                                   |
|   \\  /    A nd           | Web:      http://www.openfoam.org               |
|    \\/     M anipulation  |                                                 |
\*---------------------------------------------------------------------------*/

FoamFile
{
    version         2.0;
    format          ascii;

    root            "";
    case            "";
    instance        "";
    local           "";

    class           volScalarField;
    object          epsilon;
}

// * * * * * * * * * * * * * * * * * * * * * * * * * * * * * * * * * * * * * //


dimensions      [0 2 -3 0 0 0 0];

internalField   uniform 8.7e-05;

boundaryField
{
    Half      
    {
        type            zeroGradient;
    }

    Full    
    {
        type            zeroGradient;
    }
	
    Solid 
    {
  	type            zeroGradient;
    }

    slave    
    {
 	type            zeroGradient;
    }
    
    master    
    {
 	type            zeroGradient;
    }

    Rest
    {	
	type            zeroGradient;
    }

    Back
    {
 	type            zeroGradient;
    }
   
    stator3
    {
       type cyclic;
    }

    stator2
    {
       type cyclic;
    }

    stator1
    {
       type cyclic;
    }

    crotor
    {
       type cyclic;
    }
}


// ************************************************************************* //
